67
 generated by VMD
  NP       132.989990      150.000000      139.490005
  NP       140.000000      156.179993      166.179993
  NP       140.000000      143.820007      166.179993
  NP       150.000000      150.000000      170.000000
  NP       133.820007      140.000000      143.820007
  NP       150.000000      150.000000      130.000000
  NP       140.000000      143.820007      133.820007
  PP       166.179993      140.000000      156.179993
  NP       144.529999      169.239990      150.000000
  NP       158.679993      167.250000      155.200012
  PP       153.250000      169.020004      155.259995
  PP       144.740005      153.250000      169.020004
  PP       150.000000      155.470001      130.760010
  NP       155.200012      158.679993      132.750000
  PP       164.039993      153.210007      136.120010
  NP       163.759995      158.509995      138.240005
  NP       153.250000      130.979996      155.259995
  PP       158.679993      132.750000      144.799988
  NP       153.250000      130.979996      144.740005
  PP       155.200012      141.320007      132.750000
  PP       136.239990      141.490005      138.240005
  NP       134.830002      162.140015      154.740005
  PP       134.839996      159.369995      159.080002
  NP       132.700012      152.619995      159.690002
  PP       143.080002      160.319992      165.669998
  NP       146.869995      166.800003      160.389999
  NP       157.500000      166.880005      142.330002
  NP       145.259995      165.169998      137.860001
  PP       148.350006      168.260010      142.010010
  NP       135.860001      162.029999      142.570007
  PP       137.690002      165.680008      148.380005
  NP       142.330002      157.500000      133.119995
  PP       135.949997      155.919998      137.050003
  PP       132.180008      157.720001      145.229996
  NP       130.250000      152.660004      148.360001
  NP       154.259995      161.429993      165.849991
  NP       165.669998      156.919998      160.319992
  PP       160.270004      162.929993      161.289993
  PP       147.370010      142.839996      168.490005
  PP       130.250000      147.339996      151.639999
  NP       133.199997      139.610001      153.130005
  PP       142.010010      148.350006      131.739990
  PP       160.270004      162.929993      138.710007
  PP       162.029999      142.570007      164.139999
  NP       151.619995      137.690002      165.680008
  NP       160.270004      137.069992      161.289993
  PP       153.130005      133.199997      160.389999
  NP       141.929993      131.699997      150.000000
  PP       145.600006      130.669998      147.339996
  PP       146.869995      133.199997      139.610001
  NP       151.619995      137.690002      134.320007
  PP       164.050003      144.080002      137.050003
  NP       160.270004      137.069992      138.710007
  NP       164.059998      135.769989      150.000000
  NP       168.490005      147.370010      142.839996
  NP       169.330002      147.339996      154.399994
  NP       160.389999      146.869995      166.800003
  PP       160.389999      153.130005      166.800003
  PP       137.050003      135.949997      155.919998
  NP       140.919998      134.839996      159.369995
  PP       134.149994      145.740005      161.429993
  NP       142.570007      135.860001      137.970001
  NP       160.389999      146.869995      133.199997
  PP       169.750000      152.660004      151.639999
  PP       164.059998      164.230011      150.000000
  NP       168.260010      157.989990      148.350006
  MP       150.000000      150.000000      150.000000
